LTspice 26.0.1 for Windows
Circuit: C:\Users\Eshika Gupta\Desktop\ADC\integrator.net
Start Time: Fri Jun 26 11:19:49 2026
solver = Normal
Maximum thread count: 12
tnom = 27
temp = 27
method = trap
Direct Newton iteration succeeded in finding operating point.
Total elapsed time: 0.196 seconds.

Files loaded:
C:\Users\Eshika Gupta\Desktop\ADC\integrator.net
C:\Users\Eshika Gupta\AppData\Local\LTspice\lib\sub\UniversalOpAmp2.lib

